LAMMPS (15 Sep 2022)
# 2d WCA system, random initial configuration

#variable density equal 0.5
variable initial_temperature equal 3.0
variable final_temperature equal 0.1
variable dt equal 0.01
variable tau equal 100*0.01
variable thermo_time equal 50000*0.01
variable equil_steps equal 50000
variable run_steps equal 100000

units           lj
atom_style      atomic
dimension       2

lattice         sq 0.99
Lattice spacing in x,y,z = 1.0050378 1.0050378 1.0050378
region          box block 0 20 0 20 -0.5 0.5
# number of atom types
create_box      1 box
Created orthogonal box = (0 0 -0.50251891) to (20.100756 20.100756 0.50251891)
create_atoms    1 box
Created 400 atoms
mass 1 1.0

velocity all create 3 12345

pair_style      lj/cut 1.0
#type_1 type_2 epsilon sigma cutoff
pair_coeff      1 1 10.0 0.89089871814 1.0
pair_modify shift yes

timestep 0.01
thermo 500

fix 1 all nvt temp 3 3 1
run 50000
Generated 0 of 0 mixed pair_coeff terms from geometric mixing rule
Step          Temp          E_pair         E_mol          TotEng         Press
0   3              0              0              2.9925         2.962575
Averages over the last 51 of 101 rows, steps 25000 to 50000:
Temp E_pair E_mol TotEng Press
3.01582 1.54579 0 4.55407 30.3141
Loop time of 2.05673 on 1 procs for 50000 steps with 400 atoms

unfix 1
dump           1 all atom 100000 2dWCA_T0.1_d0.99_N100000.lammpstrj
dump           2 all dcd 500 2dWCA_T0.1_d0.99_N100000.dcd
fix 1 all nvt temp 3 0.1 1

run 100000
Generated 0 of 0 mixed pair_coeff terms from geometric mixing rule
Step          Temp          E_pair         E_mol          TotEng         Press
50000   2.9241946      1.593548       0              4.5104321      31.237894
Averages over the last 101 of 201 rows, steps 100000 to 150000:
Temp E_pair E_mol TotEng Press
0.822123 0.298512 0 1.11858 8.89131
Loop time of 3.23084 on 1 procs for 100000 steps with 400 atoms
